7
Coordinates from ORCA-job guest E -381.484606694140
  P          -0.92166912017387     -0.00145737978535      0.00629495599996
  C           0.93900893762337     -0.00380782987102      0.01564291928105
  H           1.36183658140567     -0.23939081638958      0.98411133804458
  H           1.29737544369007      0.97190556820680     -0.29346845462643
  H           1.29733898408664     -0.72855857961128     -0.70708109295668
  H          -1.13654106962569      0.78681017352262      1.14826023356211
  H          -1.13664975700620     -1.22630113607218      0.65834010069541
