56
Coordinates from ORCA-job system E -1373.743338149814
  O           0.26580985728291     -2.26646901160450      2.04789385556255
  O           1.73060150632300      0.15286369933936      1.68309679277394
  O          -1.70429870637735     -0.11685047861665      1.71952920184488
  O          -0.16594316817580      2.16217220459403      1.93817738146333
  C           2.74454966479802     -2.41344545765827      0.67229326244911
  C          -2.34915749480983     -2.62958096724453      0.83089890348402
  C           2.42222007651948      2.66934452870702      0.70458293570035
  C          -2.68134093831067      2.42089032834817      0.66034096530919
  C           1.41195401081226     -2.78322592505225      0.03118080525688
  C           3.24650486519031     -1.04276810870390      0.23802384710940
  C          -3.05451172465518     -1.38396908487017      0.31644309900624
  C           1.07633911853050      2.91174775332026      0.02865350079539
  C          -1.02374307496974     -2.87455604703910      0.11851156690696
  C           3.10403003474072      1.38734133566182      0.24893030345033
  C          -3.19052270552583      1.04700493978127      0.23711380597078
  C          -1.35815630016393      2.80862159361182      0.00812406305076
  C           0.21075643845660     -2.66804528230595      0.72636586627543
  C           2.68898666781031      0.14046499974037      0.71867274933978
  C          -2.64445944877306     -0.12489452554463      0.75898826159775
  C          -0.13588003632474      2.62624733345334      0.65390217377467
  C           1.36808238054052     -3.19319392121075     -1.29355510296437
  C           4.27116792083012     -0.94927177390825     -0.69726364361486
  C          -4.07355534547095     -1.45467619031011     -0.61839526288011
  C           1.03987183248973      3.41875725465156     -1.26358098419379
  C          -1.02171287466468     -3.28483920319146     -1.20959741943605
  C           4.13290096875431      1.43116080015089     -0.67829741581412
  C          -4.20403148049634      0.92868706317264     -0.70677668977452
  C          -1.34605126598276      3.32611054031436     -1.27870097159870
  C           0.15831302748404     -3.45746927432365     -1.90843681763194
  C           4.72576126731633      0.27289518964672     -1.15051324337201
  C          -4.65820344671461     -0.30647061220117     -1.12912098009111
  C          -0.15842998014338      3.63578255273339     -1.91645027379486
  H           3.48602652421158     -3.14959497624872      0.38472502288027
  H           2.67449510300733     -2.46344591301682      1.75172462812285
  H          -2.18369086803066     -2.54329755099401      1.89406092544602
  H          -2.99346671380419     -3.48783250242820      0.66736333778433
  H           2.31523126689367      2.67907531398478      1.78198373584131
  H           3.07488703595595      3.50087671484939      0.46440927559302
  H          -3.42693080901027      3.15605187682779      0.38019724051402
  H          -2.59549232172895      2.48132004267614      1.73873634695094
  H           2.28469775898312     -3.29364602792192     -1.84727424916508
  H           4.72045079949260     -1.85391711485921     -1.06796106467444
  H          -4.41585924416870     -2.41925979521254     -0.95213934776927
  H           1.96599021987428      3.64748899100434     -1.76126762507416
  H          -1.96070159099133     -3.45749898396403     -1.70412835988782
  H           4.47351710851364      2.38681713310929     -1.03631167552183
  H          -4.64816418814699      1.82265068178713     -1.10940559393870
  H          -2.28047773903088      3.47812372494730     -1.78990471202110
  H           0.13405162277349     -3.77842018066926     -2.93421562131052
  H           5.52578708748463      0.32398751682062     -1.86635327883886
  H          -5.45208345206299     -0.37546422502883     -1.85054783512728
  H          -0.16727412861074      4.03675258544211     -2.91376756708532
  H           0.41665175804396     -3.01187854835134      2.61559330266681
  H           1.30952027178491     -0.68977855539807      1.83919044539120
  H          -1.36946668285838      0.75497582917292      1.90153039079178
  H           0.57924953510466      1.58214771002950      2.08172774247653
