63
Coordinates from ORCA-job system E -1762.989859920669
  O           0.34877711015828     -1.52908140980973      1.96313660760170
  O           2.05063534100264      0.46446325106128      2.01291607568305
  O          -1.60707509572233      0.18874755098883      1.85668172005891
  O           0.07213350283894      2.18773739068102      1.94462883905750
  C           2.90526832996409     -2.11397324749121      0.94054828673983
  C          -2.19142189224216     -2.34077520807669      0.77439436092440
  C           2.68060531033650      2.98456804171151      0.91761008275455
  C          -2.41382161314302      2.75192642727919      0.73394167891102
  C           1.62863474212965     -2.63768555911491      0.30238123066545
  C           3.34734518050462     -0.76921682143844      0.38536634854995
  C          -2.74572679034067     -1.05252666958452      0.18936004925789
  C           1.35723419973798      3.38545002890593      0.28426777790099
  C          -0.82647340510639     -2.72755862471834      0.22297770955419
  C           3.24388781631688      1.68546447101553      0.36491273176511
  C          -2.82839776347611      1.40397513399709      0.16300342474402
  C          -1.09583497806115      3.27696653938695      0.18834388532917
  C           0.36931201342948     -2.29138344725205      0.82545869225915
  C           2.87528228118519      0.44524012060971      0.91873828433190
  C          -2.38440866133043      0.19506442327098      0.73066071687722
  C           0.12542042858698      2.94680275798339      0.80432418414885
  C           1.67597342665717     -3.42744827422206     -0.85070319302473
  C           4.20153354051004     -0.71461657029706     -0.72276232617727
  C          -3.58694721097994     -1.07391509757300     -0.92709320651132
  C           1.34096799080559      4.16805053602668     -0.87704124117864
  C          -0.73175780137393     -3.51685077023758     -0.93014495608433
  C           4.09936452161111      1.69276364271281     -0.74180321634888
  C          -3.65963434392124      1.33576890904099     -0.96279558089838
  C          -1.06518223773838      4.06003543628364     -0.96984047795158
  C           0.50554159451889     -3.86916453154346     -1.47004067128441
  C           4.58186676848893      0.50265027736658     -1.28783784922839
  C          -4.04930264631006      0.11043353498138     -1.50425067066881
  C           0.14337605312298      4.50841804802595     -1.50568540637417
  H           3.70899020334411     -2.84144615186831      0.75636140278804
  H           2.78047230642153     -2.05314071836779      2.03211513845963
  H          -2.14521428825507     -2.26431220811033      1.87138414982765
  H          -2.89454710534772     -3.15473534223508      0.54608966457874
  H           2.57269646550605      2.91233388671609      2.01028708548073
  H           3.40873480226265      3.78616908096382      0.72691719685714
  H          -3.20147065497058      3.48024881523666      0.49281803210118
  H          -2.36567480859188      2.69486254135228      1.83204109120775
  H           2.65003009749309     -3.69796444336907     -1.26723229914060
  H           4.57281295412380     -1.65165492839226     -1.14654849772138
  H          -3.87773964015106     -2.03862913735444     -1.35167325257716
  H           2.29157799663551      4.51400976570119     -1.29182454282207
  H          -1.65284131833329     -3.86221023450225     -1.40766210198253
  H           4.38832250615964      2.65205919998783     -1.17953585771324
  H          -4.01567300687313      2.26755316153322     -1.41075926574247
  H          -2.00879570999588      4.31835078978193     -1.45808771925910
  H           0.55776756086542     -4.48902904496240     -2.36784182624023
  H           5.25250418587773      0.52398295256777     -2.14967152303423
  H          -4.70809782960148      0.07813686406676     -2.37485740726213
  H           0.15118229150178      5.12246540240737     -2.40895722944125
  H          -0.48415656996095     -0.98577555851579      2.00159804979328
  H           1.51979878672011     -0.37451103248678      2.07334267584199
  H          -1.08469481220197      1.03101740186974      1.94585946938142
  H           0.90412311811631      1.65420710306166      2.05357011758307
  P           0.40371486034753      0.37349292671426     -1.49847118636678
  C          -0.64680794824283     -0.34954558553620     -2.86230203160595
  H          -0.23774017971727     -0.16803547659598     -3.86693993046620
  H          -1.65402158691416      0.08441233322308     -2.79394421310743
  H          -0.73607514577518     -1.43238704865184     -2.69718527691131
  H           0.56125950915654      1.67662356207244     -2.05554118857830
  H           1.67098724824050     -0.08287916627797     -1.96700261531215
