# avogadro generated ORCA file
# CH5P | Frequencies | HF/6-31G(d)
# 
! Opt Freq HF 6-31G(d) 

%maxcore 1024

%pal
   nprocs 1
end

%output
   print[p_mos] 1
   print[p_basis] 2
end

%plots
    Format Cube
    ElDens("electron-density.cube");
    MO("homo.cube",13,0);
    MO("lumo.cube",14,0);
end

* xyz 0 1
   P     -0.917200    0.000000    0.000000
   C      0.917200    0.000000    0.000000
   H      1.301800   -0.242000    0.994600
   H      1.299900    0.982900   -0.288200
   H      1.299900   -0.740600   -0.707600
   H     -1.100400    0.797600    1.154300
   H     -1.100500   -1.238700    0.659000
*


