7
Coordinates from ORCA-job system E -381.483686787216
  P      -0.917200      0.000000      0.000000
  C       0.917200      0.000000      0.000000
  H       1.301800     -0.242000      0.994600
  H       1.299900      0.982900     -0.288200
  H       1.299900     -0.740600     -0.707600
  H      -1.100400      0.797600      1.154300
  H      -1.100500     -1.238700      0.659000
7
Coordinates from ORCA-job system E -381.484445234415
  P      -0.922110     -0.001603      0.004147
  C       0.928264     -0.001660      0.006062
  H       1.329928     -0.240360      0.982974
  H       1.301868      0.971913     -0.288791
  H       1.302286     -0.729165     -0.704716
  H      -1.119968      0.791014      1.150880
  H      -1.119567     -1.230939      0.661544
7
Coordinates from ORCA-job system E -381.484586951040
  P      -0.924377     -0.002038      0.006411
  C       0.935667     -0.003024      0.011764
  H       1.351636     -0.239944      0.982310
  H       1.301304      0.970739     -0.291836
  H       1.301679     -0.727011     -0.706523
  H      -1.132707      0.786711      1.148833
  H      -1.132501     -1.226232      0.661140
7
Coordinates from ORCA-job system E -381.484602854885
  P      -0.923591     -0.001745      0.006564
  C       0.938035     -0.003544      0.014293
  H       1.358885     -0.239600      0.983465
  H       1.299425      0.971385     -0.293173
  H       1.299581     -0.727742     -0.707116
  H      -1.135787      0.786217      1.148442
  H      -1.135848     -1.225770      0.659625
7
Coordinates from ORCA-job system E -381.484606291625
  P      -0.922307     -0.001487      0.006378
  C       0.938930     -0.003770      0.015476
  H       1.361563     -0.239375      0.984070
  H       1.297865      0.971794     -0.293575
  H       1.297858     -0.728402     -0.707122
  H      -1.136524      0.786547      1.148340
  H      -1.136685     -1.226107      0.658532
7
Coordinates from ORCA-job system E -381.484606694140
  P      -0.921669     -0.001457      0.006295
  C       0.939009     -0.003808      0.015643
  H       1.361837     -0.239391      0.984111
  H       1.297375      0.971906     -0.293468
  H       1.297339     -0.728559     -0.707081
  H      -1.136541      0.786810      1.148260
  H      -1.136650     -1.226301      0.658340
