7
Coordinates from ORCA-job system E -382.251327691400
  P          -0.93447209805528      0.00565171914820     -0.02121450890376
  C           0.93847297943446     -0.00364581465853      0.01549697812135
  H           1.36313873961652     -0.24279026475910      1.00104668381093
  H           1.30337493102461      0.98637276200387     -0.29911544493852
  H           1.30304684058905     -0.73971407040452     -0.71766428435589
  H          -1.13619644092842      0.78386511560501      1.16269140548110
  H          -1.13666495168094     -1.23053944693493      0.67085917078480
